[General]

cmdenv-config-name = RandomGrid
network = src.RandomGrid
record-eventlog=false
cmdenv-interactive=true
sim-time-limit               = 3000000s
simtime-resolution           = -3

RandomGrid.poweroff_rate =  0#${0, 1, 10, 50, 70, 90, 100}
RandomGrid.g_syn_scheme   =  0#${0, 1, 2} # Free beacon / pulsar / find


**.result-recording-modes = all,+vector,+histogram 


RandomGrid.g_ic_num          = 6
RandomGrid.g_energy_model    = 1
RandomGrid.power_off_switch  = true



RandomGrid.sink.node_type    =  0
RandomGrid.icc.node_type     =  2
RandomGrid.ic[*].node_type   =  1
RandomGrid.ic[*].g_if_produce_packets =  false

