[General]

cmdenv-config-name = RandomGrid
network = src.RandomGrid



record-eventlog=false
cmdenv-interactive=true
sim-time-limit               = 3000000s
simtime-scale                = -3

RandomGrid.poweroff_rate =  ${0, 20, 50, 90}
RandomGrid.g_syn_scheme   =  ${0,1,2} #${2,0,1}#${0, 1, 2}
RandomGrid.g_ic_syn_cycle =  ${6, 30, 51, 100}
RandomGrid.g_energy_model    = ${0,1,2}
RandomGrid.g_ic_num          = 100



RandomGrid.sink.node_type    =  0
RandomGrid.icc.node_type     =  2
RandomGrid.ic[*].node_type   =  1
RandomGrid.ic[*].g_if_produce_packets =  false

