[General]

cmdenv-config-name = src.RandomGrid
network = RandomGrid



record-eventlog=false
cmdenv-interactive=true
sim-time-limit               = 300000s
simtime-scale                = -4

repeat = 10


RandomGrid.poweroff_rate =  ${1, 5}
RandomGrid.g_syn_scheme   =  ${0,2} 
RandomGrid.g_energy_model    = ${0,1,2}
RandomGrid.g_ic_num          = 6

RandomGrid.sink.node_type    =  0
RandomGrid.icc.node_type     =  2
RandomGrid.ic[*].node_type   =  1
RandomGrid.ic[*].g_if_produce_packets =  false

