[General]

cmdenv-config-name = RandomGrid
network = RandomGrid

record-eventlog=false
cmdenv-interactive=true
sim-time-limit               = 3000000s
simtime-scale                = -3

RandomGrid.poweroff_rate =  ${0, 1, 10, 50, 70, 90, 100}
RandomGrid.g_syn_scheme   =  0#${0, 1, 2}
RandomGrid.g_ic_syn_cycle =  ${100, 300, 500}
RandomGrid.g_ic_num          = 100
RandomGrid.g_energy_model    = 0


RandomGrid.sink.node_type    =  0
RandomGrid.icc.node_type     =  2
RandomGrid.ic[*].node_type   =  1
RandomGrid.ic[*].g_if_produce_packets =  false

